/*--------------------------------*- C++ -*----------------------------------*\
| =========                 |                                                 |
| \      /  Field         | OpenFOAM: The Open Source CFD Toolbox           |
|  \    /   Operation     | Version:  v2406                                 |
|   \  /    And           | Website:  www.openfoam.com                      |
|    \/     Manipulation  |                                                 |
\*---------------------------------------------------------------------------*/
FoamFile
{
    version     2.0;
    format      ascii;
    class       dictionary;
    object      chemistryProperties;
}
// * * * * * * * * * * * * * * * * * * * * * * * * * * * * * * * * * * * * * //

chemistryType
{
    solver            chemkin;
}

chemistry       on;

initialChemicalTimeStep 1.0e-07;

odeCoeffs
{
    solver          None;
    eps             5.00e-02;
}

// ************************************************************************* //
