/*--------------------------------*- C++ -*----------------------------------*\
| =========                 |                                                 |
| \      /  F ield         | OpenFOAM: The Open Source CFD Toolbox           |
|  \    /   O peration     | Version:  v2406                                 |
|   \  /    A nd           | Website:  www.openfoam.com                      |
|    \/     M anipulation  |                                                 |
\*---------------------------------------------------------------------------*/
FoamFile
{
    version     2.0;
    format      ascii;
    class       dictionary;
    object      genericCloudProperties;
}
// * * * * * * * * * * * * * * * * * * * * * * * * * * * * * //

solution
{
    active          true;
    coupled         true;
    transient       yes;
    cellValueSourceCorrection on;
    maxCo           0.3;

    sourceTerms
    {
        schemes
        {
            rho             explicit 1;
            U               explicit 1;
            Yi              explicit 1;
            h               explicit 1;
            radiation       explicit 1;
        }
    }

    interpolationSchemes
    {
            rho             cell;
            U               cellPoint;
            thermo:mu       cell;
            T               cell;
            Cp              cell;
            kappa           cell;
            p               cell;
    }

    integrationSchemes
    {
            U               Euler;
            T               analytical;
    }
}


constantProperties
{
    rho0            422.6;
    T0              350;
    Cp0             2200;

    constantVolume  false;
}


subModels
{
    particleForces
    {
            sphereDrag;
            gravity;
    }

    injectionModels
    {
        model1
        {
            SOI                 1.0;
            massTotal           1.0;
            outerDiameter       0.0;
            innerDiameter       0.01;
            duration            0.0;
            sizeDistribution    RosinRammlerDistribution;
            sizeDistribution_minValue1.0;
            sizeDistribution_maxValue0.0;
            sizeDistribution_lambda1.0;
            sizeDistribution_n  0.0;
            CdValue             0.0;
            thetaInnerValue     0.0;
            thetaOuterValue     0.0;
            parcelBasisType     (mass);
            injectionMethod     (disc);
            flowType            flowRateAndDischarge;
            velocity            (0.0 1.0 0.0);
            parcelsPerSecond    100000.0;
            position            (0.0 1.0 0.0);
        }
    }

    dispersionModel none;
    patchInteractionModel standardWallInteraction;
    heatTransferModel RanzMarshallCoeffs;
    compositionModel singleMixtureFractionCoeffs;
    phaseChangeModel liquidEvaporationCoeffs;
    devolatilisationModel none;
    surfaceReactionModel none;
    stochasticCollisionModel none;
    surfaceFilmModel none;
    radiation       none;

    standardWallInteractionCoeffs
    {
        type            standardWallInteraction;
    }

    RanzMarshallCoeffs
    {
        BirdCorrection  False;
    }

    singleMixtureFractionCoeffs
    {
        phases
        (
            gas    {}            
            liquid { CH4 Líquido }   
            solid  {}            
        );
        YGasTot0        0;
        YLiquidTot0     1;
        YSolidTot0      0;
    }

    liquidEvaporationCoeffs
    {
        enthalpyTransfer enthalpyDifference;
        activeLiquids   (  );
    }
}


cloudFunctions
{
    particlePostProcessing1
    {
        type                particlePostProcessing;
        maxStoredParcels    100;
        patches             (  );
    }
}


// ************************************************************************* //
