/*--------------------------------*- C++ -*----------------------------------*\
| =========                 |                                                 |
| \      /  Field         | OpenFOAM: The Open Source CFD Toolbox           |
|  \    /   Operation     | Version:  v2406                                 |
|   \  /    And           | Website:  www.openfoam.com                      |
|    \/     Manipulation  |                                                 |
\*---------------------------------------------------------------------------*/
FoamFile
{
    version     2.0;
    format      ascii;
    class       dictionary;
    object      particleTrackProperties;
}
// * * * * * * * * * * * * * * * * * * * * * * * * * * * * * * * * * * * * * //

cloud           genericCloud;

sampleFrequency 1;

maxPositions    2000000;

setFormat       vtk;
maxTracks       -1;

// ************************************************************************* //
